<routes>
        <vType id="typeWE" accel="0.8" decel="4.5" sigma="0.5" length="5" minGap="2.5" maxSpeed="16.67" guiShape="passenger"/>
        <vType id="typeNS" accel="0.8" decel="4.5" sigma="0.5" length="7" minGap="3" maxSpeed="25" guiShape="bus"/>

        <route id="right" edges="51o 1i 2o 52i" />
        <route id="left" edges="52o 2i 1o 51i" />
        <route id="down" edges="54o 4i 3o 53i" />
        <route id="up" edges="53o 3i 4o 54i" />
    <vehicle id="left_0" type="typeWE" route="left" depart="7" />
    <vehicle id="left_1" type="typeWE" route="left" depart="8" />
    <vehicle id="up_2" type="typeNS" route="up" depart="8" color="1,0,0"/>
    <vehicle id="left_3" type="typeWE" route="left" depart="11" />
    <vehicle id="right_4" type="typeWE" route="right" depart="16" />
    <vehicle id="right_5" type="typeWE" route="right" depart="17" />
    <vehicle id="left_6" type="typeWE" route="left" depart="21" />
    <vehicle id="left_7" type="typeWE" route="left" depart="24" />
    <vehicle id="left_8" type="typeWE" route="left" depart="32" />
    <vehicle id="down_9" type="typeNS" route="down" depart="42" color="1,0,0"/>
    <vehicle id="right_10" type="typeWE" route="right" depart="52" />
    <vehicle id="left_11" type="typeWE" route="left" depart="55" />
    <vehicle id="left_12" type="typeWE" route="left" depart="58" />
    <vehicle id="right_13" type="typeWE" route="right" depart="59" />
    <vehicle id="left_14" type="typeWE" route="left" depart="59" />
    <vehicle id="left_15" type="typeWE" route="left" depart="60" />
    <vehicle id="up_16" type="typeNS" route="up" depart="64" color="1,0,0"/>
    <vehicle id="right_17" type="typeWE" route="right" depart="69" />
    <vehicle id="left_18" type="typeWE" route="left" depart="70" />
    <vehicle id="right_19" type="typeWE" route="right" depart="71" />
    <vehicle id="left_20" type="typeWE" route="left" depart="72" />
    <vehicle id="left_21" type="typeWE" route="left" depart="74" />
    <vehicle id="up_22" type="typeNS" route="up" depart="83" color="1,0,0"/>
    <vehicle id="right_23" type="typeWE" route="right" depart="96" />
    <vehicle id="left_24" type="typeWE" route="left" depart="96" />
    <vehicle id="down_25" type="typeNS" route="down" depart="97" color="1,0,0"/>
    <vehicle id="right_26" type="typeWE" route="right" depart="102" />
    <vehicle id="down_27" type="typeNS" route="down" depart="102" color="1,0,0"/>
    <vehicle id="right_28" type="typeWE" route="right" depart="108" />
    <vehicle id="right_29" type="typeWE" route="right" depart="116" />
    <vehicle id="right_30" type="typeWE" route="right" depart="121" />
    <vehicle id="left_31" type="typeWE" route="left" depart="127" />
    <vehicle id="up_32" type="typeNS" route="up" depart="136" color="1,0,0"/>
    <vehicle id="right_33" type="typeWE" route="right" depart="140" />
    <vehicle id="right_34" type="typeWE" route="right" depart="143" />
    <vehicle id="left_35" type="typeWE" route="left" depart="161" />
    <vehicle id="left_36" type="typeWE" route="left" depart="162" />
    <vehicle id="down_37" type="typeNS" route="down" depart="162" color="1,0,0"/>
    <vehicle id="down_38" type="typeNS" route="down" depart="166" color="1,0,0"/>
    <vehicle id="up_39" type="typeNS" route="up" depart="168" color="1,0,0"/>
    <vehicle id="right_40" type="typeWE" route="right" depart="172" />
    <vehicle id="left_41" type="typeWE" route="left" depart="173" />
    <vehicle id="left_42" type="typeWE" route="left" depart="174" />
    <vehicle id="left_43" type="typeWE" route="left" depart="175" />
    <vehicle id="right_44" type="typeWE" route="right" depart="182" />
    <vehicle id="right_45" type="typeWE" route="right" depart="187" />
    <vehicle id="left_46" type="typeWE" route="left" depart="190" />
    <vehicle id="right_47" type="typeWE" route="right" depart="194" />
    <vehicle id="left_48" type="typeWE" route="left" depart="200" />
    <vehicle id="down_49" type="typeNS" route="down" depart="207" color="1,0,0"/>
    <vehicle id="right_50" type="typeWE" route="right" depart="208" />
    <vehicle id="left_51" type="typeWE" route="left" depart="211" />
    <vehicle id="right_52" type="typeWE" route="right" depart="213" />
    <vehicle id="right_53" type="typeWE" route="right" depart="218" />
    <vehicle id="right_54" type="typeWE" route="right" depart="220" />
    <vehicle id="down_55" type="typeNS" route="down" depart="222" color="1,0,0"/>
    <vehicle id="left_56" type="typeWE" route="left" depart="223" />
    <vehicle id="left_57" type="typeWE" route="left" depart="229" />
    <vehicle id="up_58" type="typeNS" route="up" depart="229" color="1,0,0"/>
    <vehicle id="right_59" type="typeWE" route="right" depart="231" />
    <vehicle id="left_60" type="typeWE" route="left" depart="238" />
    <vehicle id="down_61" type="typeNS" route="down" depart="240" color="1,0,0"/>
    <vehicle id="left_62" type="typeWE" route="left" depart="246" />
    <vehicle id="left_63" type="typeWE" route="left" depart="250" />
    <vehicle id="right_64" type="typeWE" route="right" depart="257" />
    <vehicle id="down_65" type="typeNS" route="down" depart="261" color="1,0,0"/>
    <vehicle id="right_66" type="typeWE" route="right" depart="266" />
    <vehicle id="left_67" type="typeWE" route="left" depart="274" />
    <vehicle id="right_68" type="typeWE" route="right" depart="278" />
    <vehicle id="right_69" type="typeWE" route="right" depart="284" />
    <vehicle id="down_70" type="typeNS" route="down" depart="285" color="1,0,0"/>
    <vehicle id="right_71" type="typeWE" route="right" depart="286" />
    <vehicle id="left_72" type="typeWE" route="left" depart="296" />
    <vehicle id="right_73" type="typeWE" route="right" depart="298" />
    <vehicle id="down_74" type="typeNS" route="down" depart="301" color="1,0,0"/>
    <vehicle id="right_75" type="typeWE" route="right" depart="302" />
    <vehicle id="up_76" type="typeNS" route="up" depart="305" color="1,0,0"/>
    <vehicle id="down_77" type="typeNS" route="down" depart="308" color="1,0,0"/>
    <vehicle id="up_78" type="typeNS" route="up" depart="308" color="1,0,0"/>
    <vehicle id="down_79" type="typeNS" route="down" depart="309" color="1,0,0"/>
    <vehicle id="right_80" type="typeWE" route="right" depart="317" />
    <vehicle id="left_81" type="typeWE" route="left" depart="322" />
    <vehicle id="right_82" type="typeWE" route="right" depart="324" />
    <vehicle id="down_83" type="typeNS" route="down" depart="330" color="1,0,0"/>
    <vehicle id="left_84" type="typeWE" route="left" depart="331" />
    <vehicle id="right_85" type="typeWE" route="right" depart="334" />
    <vehicle id="down_86" type="typeNS" route="down" depart="343" color="1,0,0"/>
    <vehicle id="right_87" type="typeWE" route="right" depart="344" />
    <vehicle id="right_88" type="typeWE" route="right" depart="348" />
    <vehicle id="left_89" type="typeWE" route="left" depart="355" />
    <vehicle id="left_90" type="typeWE" route="left" depart="357" />
    <vehicle id="left_91" type="typeWE" route="left" depart="361" />
    <vehicle id="right_92" type="typeWE" route="right" depart="363" />
    <vehicle id="right_93" type="typeWE" route="right" depart="369" />
    <vehicle id="right_94" type="typeWE" route="right" depart="372" />
    <vehicle id="right_95" type="typeWE" route="right" depart="373" />
    <vehicle id="left_96" type="typeWE" route="left" depart="374" />
    <vehicle id="left_97" type="typeWE" route="left" depart="382" />
    <vehicle id="down_98" type="typeNS" route="down" depart="382" color="1,0,0"/>
    <vehicle id="right_99" type="typeWE" route="right" depart="383" />
    <vehicle id="left_100" type="typeWE" route="left" depart="383" />
    <vehicle id="left_101" type="typeWE" route="left" depart="389" />
    <vehicle id="left_102" type="typeWE" route="left" depart="393" />
    <vehicle id="left_103" type="typeWE" route="left" depart="394" />
    <vehicle id="down_104" type="typeNS" route="down" depart="397" color="1,0,0"/>
    <vehicle id="right_105" type="typeWE" route="right" depart="398" />
    <vehicle id="right_106" type="typeWE" route="right" depart="399" />
    <vehicle id="down_107" type="typeNS" route="down" depart="404" color="1,0,0"/>
    <vehicle id="left_108" type="typeWE" route="left" depart="415" />
    <vehicle id="right_109" type="typeWE" route="right" depart="420" />
    <vehicle id="right_110" type="typeWE" route="right" depart="427" />
    <vehicle id="left_111" type="typeWE" route="left" depart="433" />
    <vehicle id="left_112" type="typeWE" route="left" depart="443" />
    <vehicle id="right_113" type="typeWE" route="right" depart="448" />
    <vehicle id="right_114" type="typeWE" route="right" depart="449" />
    <vehicle id="left_115" type="typeWE" route="left" depart="457" />
    <vehicle id="right_116" type="typeWE" route="right" depart="462" />
    <vehicle id="up_117" type="typeNS" route="up" depart="463" color="1,0,0"/>
    <vehicle id="right_118" type="typeWE" route="right" depart="465" />
    <vehicle id="right_119" type="typeWE" route="right" depart="466" />
    <vehicle id="left_120" type="typeWE" route="left" depart="469" />
    <vehicle id="up_121" type="typeNS" route="up" depart="473" color="1,0,0"/>
    <vehicle id="left_122" type="typeWE" route="left" depart="475" />
    <vehicle id="right_123" type="typeWE" route="right" depart="476" />
    <vehicle id="right_124" type="typeWE" route="right" depart="482" />
    <vehicle id="right_125" type="typeWE" route="right" depart="488" />
    <vehicle id="left_126" type="typeWE" route="left" depart="491" />
    <vehicle id="left_127" type="typeWE" route="left" depart="492" />
    <vehicle id="right_128" type="typeWE" route="right" depart="493" />
    <vehicle id="right_129" type="typeWE" route="right" depart="495" />
    <vehicle id="right_130" type="typeWE" route="right" depart="496" />
    <vehicle id="left_131" type="typeWE" route="left" depart="497" />
    <vehicle id="left_132" type="typeWE" route="left" depart="500" />
    <vehicle id="right_133" type="typeWE" route="right" depart="502" />
    <vehicle id="right_134" type="typeWE" route="right" depart="511" />
    <vehicle id="down_135" type="typeNS" route="down" depart="513" color="1,0,0"/>
    <vehicle id="right_136" type="typeWE" route="right" depart="514" />
    <vehicle id="up_137" type="typeNS" route="up" depart="514" color="1,0,0"/>
    <vehicle id="right_138" type="typeWE" route="right" depart="518" />
    <vehicle id="left_139" type="typeWE" route="left" depart="520" />
    <vehicle id="left_140" type="typeWE" route="left" depart="521" />
    <vehicle id="down_141" type="typeNS" route="down" depart="521" color="1,0,0"/>
    <vehicle id="right_142" type="typeWE" route="right" depart="524" />
    <vehicle id="right_143" type="typeWE" route="right" depart="529" />
    <vehicle id="up_144" type="typeNS" route="up" depart="530" color="1,0,0"/>
    <vehicle id="left_145" type="typeWE" route="left" depart="531" />
    <vehicle id="left_146" type="typeWE" route="left" depart="538" />
    <vehicle id="left_147" type="typeWE" route="left" depart="547" />
    <vehicle id="left_148" type="typeWE" route="left" depart="549" />
    <vehicle id="right_149" type="typeWE" route="right" depart="550" />
    <vehicle id="left_150" type="typeWE" route="left" depart="550" />
    <vehicle id="left_151" type="typeWE" route="left" depart="552" />
    <vehicle id="up_152" type="typeNS" route="up" depart="553" color="1,0,0"/>
    <vehicle id="right_153" type="typeWE" route="right" depart="562" />
    <vehicle id="down_154" type="typeNS" route="down" depart="572" color="1,0,0"/>
    <vehicle id="left_155" type="typeWE" route="left" depart="582" />
    <vehicle id="down_156" type="typeNS" route="down" depart="583" color="1,0,0"/>
    <vehicle id="left_157" type="typeWE" route="left" depart="584" />
    <vehicle id="down_158" type="typeNS" route="down" depart="588" color="1,0,0"/>
    <vehicle id="down_159" type="typeNS" route="down" depart="590" color="1,0,0"/>
    <vehicle id="left_160" type="typeWE" route="left" depart="593" />
    <vehicle id="up_161" type="typeNS" route="up" depart="601" color="1,0,0"/>
    <vehicle id="right_162" type="typeWE" route="right" depart="605" />
    <vehicle id="left_163" type="typeWE" route="left" depart="606" />
    <vehicle id="left_164" type="typeWE" route="left" depart="608" />
    <vehicle id="right_165" type="typeWE" route="right" depart="612" />
    <vehicle id="up_166" type="typeNS" route="up" depart="612" color="1,0,0"/>
    <vehicle id="right_167" type="typeWE" route="right" depart="616" />
    <vehicle id="left_168" type="typeWE" route="left" depart="617" />
    <vehicle id="right_169" type="typeWE" route="right" depart="618" />
    <vehicle id="left_170" type="typeWE" route="left" depart="626" />
    <vehicle id="right_171" type="typeWE" route="right" depart="627" />
    <vehicle id="right_172" type="typeWE" route="right" depart="630" />
    <vehicle id="left_173" type="typeWE" route="left" depart="630" />
    <vehicle id="left_174" type="typeWE" route="left" depart="640" />
    <vehicle id="right_175" type="typeWE" route="right" depart="652" />
    <vehicle id="left_176" type="typeWE" route="left" depart="655" />
    <vehicle id="right_177" type="typeWE" route="right" depart="670" />
    <vehicle id="left_178" type="typeWE" route="left" depart="671" />
    <vehicle id="up_179" type="typeNS" route="up" depart="677" color="1,0,0"/>
    <vehicle id="right_180" type="typeWE" route="right" depart="680" />
    <vehicle id="right_181" type="typeWE" route="right" depart="688" />
    <vehicle id="right_182" type="typeWE" route="right" depart="689" />
    <vehicle id="right_183" type="typeWE" route="right" depart="691" />
    <vehicle id="left_184" type="typeWE" route="left" depart="694" />
    <vehicle id="down_185" type="typeNS" route="down" depart="695" color="1,0,0"/>
    <vehicle id="right_186" type="typeWE" route="right" depart="699" />
    <vehicle id="left_187" type="typeWE" route="left" depart="700" />
    <vehicle id="right_188" type="typeWE" route="right" depart="701" />
    <vehicle id="down_189" type="typeNS" route="down" depart="703" color="1,0,0"/>
    <vehicle id="left_190" type="typeWE" route="left" depart="707" />
    <vehicle id="right_191" type="typeWE" route="right" depart="714" />
    <vehicle id="down_192" type="typeNS" route="down" depart="714" color="1,0,0"/>
    <vehicle id="left_193" type="typeWE" route="left" depart="720" />
    <vehicle id="down_194" type="typeNS" route="down" depart="721" color="1,0,0"/>
    <vehicle id="right_195" type="typeWE" route="right" depart="730" />
    <vehicle id="right_196" type="typeWE" route="right" depart="732" />
    <vehicle id="left_197" type="typeWE" route="left" depart="732" />
    <vehicle id="right_198" type="typeWE" route="right" depart="744" />
    <vehicle id="left_199" type="typeWE" route="left" depart="748" />
    <vehicle id="up_200" type="typeNS" route="up" depart="756" color="1,0,0"/>
    <vehicle id="up_201" type="typeNS" route="up" depart="757" color="1,0,0"/>
    <vehicle id="right_202" type="typeWE" route="right" depart="758" />
    <vehicle id="left_203" type="typeWE" route="left" depart="760" />
    <vehicle id="left_204" type="typeWE" route="left" depart="767" />
    <vehicle id="up_205" type="typeNS" route="up" depart="767" color="1,0,0"/>
    <vehicle id="up_206" type="typeNS" route="up" depart="773" color="1,0,0"/>
    <vehicle id="down_207" type="typeNS" route="down" depart="778" color="1,0,0"/>
    <vehicle id="left_208" type="typeWE" route="left" depart="784" />
    <vehicle id="left_209" type="typeWE" route="left" depart="789" />
    <vehicle id="down_210" type="typeNS" route="down" depart="796" color="1,0,0"/>
    <vehicle id="up_211" type="typeNS" route="up" depart="797" color="1,0,0"/>
    <vehicle id="left_212" type="typeWE" route="left" depart="798" />
    <vehicle id="right_213" type="typeWE" route="right" depart="807" />
    <vehicle id="right_214" type="typeWE" route="right" depart="810" />
    <vehicle id="up_215" type="typeNS" route="up" depart="812" color="1,0,0"/>
    <vehicle id="left_216" type="typeWE" route="left" depart="813" />
    <vehicle id="up_217" type="typeNS" route="up" depart="815" color="1,0,0"/>
    <vehicle id="up_218" type="typeNS" route="up" depart="818" color="1,0,0"/>
    <vehicle id="down_219" type="typeNS" route="down" depart="829" color="1,0,0"/>
    <vehicle id="right_220" type="typeWE" route="right" depart="831" />
    <vehicle id="down_221" type="typeNS" route="down" depart="834" color="1,0,0"/>
    <vehicle id="down_222" type="typeNS" route="down" depart="838" color="1,0,0"/>
    <vehicle id="right_223" type="typeWE" route="right" depart="842" />
    <vehicle id="right_224" type="typeWE" route="right" depart="845" />
    <vehicle id="left_225" type="typeWE" route="left" depart="848" />
    <vehicle id="right_226" type="typeWE" route="right" depart="856" />
    <vehicle id="down_227" type="typeNS" route="down" depart="857" color="1,0,0"/>
    <vehicle id="down_228" type="typeNS" route="down" depart="867" color="1,0,0"/>
    <vehicle id="left_229" type="typeWE" route="left" depart="876" />
    <vehicle id="right_230" type="typeWE" route="right" depart="885" />
    <vehicle id="left_231" type="typeWE" route="left" depart="885" />
    <vehicle id="down_232" type="typeNS" route="down" depart="886" color="1,0,0"/>
    <vehicle id="right_233" type="typeWE" route="right" depart="890" />
    <vehicle id="down_234" type="typeNS" route="down" depart="892" color="1,0,0"/>
    <vehicle id="right_235" type="typeWE" route="right" depart="900" />
    <vehicle id="left_236" type="typeWE" route="left" depart="909" />
    <vehicle id="right_237" type="typeWE" route="right" depart="910" />
    <vehicle id="down_238" type="typeNS" route="down" depart="913" color="1,0,0"/>
    <vehicle id="down_239" type="typeNS" route="down" depart="917" color="1,0,0"/>
    <vehicle id="up_240" type="typeNS" route="up" depart="925" color="1,0,0"/>
    <vehicle id="right_241" type="typeWE" route="right" depart="927" />
    <vehicle id="left_242" type="typeWE" route="left" depart="934" />
    <vehicle id="right_243" type="typeWE" route="right" depart="943" />
    <vehicle id="right_244" type="typeWE" route="right" depart="950" />
    <vehicle id="left_245" type="typeWE" route="left" depart="954" />
    <vehicle id="left_246" type="typeWE" route="left" depart="956" />
    <vehicle id="right_247" type="typeWE" route="right" depart="962" />
    <vehicle id="left_248" type="typeWE" route="left" depart="962" />
    <vehicle id="up_249" type="typeNS" route="up" depart="962" color="1,0,0"/>
    <vehicle id="left_250" type="typeWE" route="left" depart="965" />
    <vehicle id="up_251" type="typeNS" route="up" depart="970" color="1,0,0"/>
    <vehicle id="down_252" type="typeNS" route="down" depart="971" color="1,0,0"/>
    <vehicle id="right_253" type="typeWE" route="right" depart="972" />
    <vehicle id="right_254" type="typeWE" route="right" depart="982" />
    <vehicle id="right_255" type="typeWE" route="right" depart="983" />
    <vehicle id="left_256" type="typeWE" route="left" depart="984" />
    <vehicle id="up_257" type="typeNS" route="up" depart="991" color="1,0,0"/>
    <vehicle id="right_258" type="typeWE" route="right" depart="992" />
    <vehicle id="right_259" type="typeWE" route="right" depart="994" />
    <vehicle id="right_260" type="typeWE" route="right" depart="995" />
    <vehicle id="right_261" type="typeWE" route="right" depart="1001" />
    <vehicle id="down_262" type="typeNS" route="down" depart="1002" color="1,0,0"/>
    <vehicle id="up_263" type="typeNS" route="up" depart="1003" color="1,0,0"/>
    <vehicle id="down_264" type="typeNS" route="down" depart="1008" color="1,0,0"/>
    <vehicle id="right_265" type="typeWE" route="right" depart="1009" />
    <vehicle id="up_266" type="typeNS" route="up" depart="1014" color="1,0,0"/>
    <vehicle id="right_267" type="typeWE" route="right" depart="1015" />
    <vehicle id="right_268" type="typeWE" route="right" depart="1017" />
    <vehicle id="up_269" type="typeNS" route="up" depart="1026" color="1,0,0"/>
    <vehicle id="right_270" type="typeWE" route="right" depart="1029" />
    <vehicle id="left_271" type="typeWE" route="left" depart="1029" />
    <vehicle id="right_272" type="typeWE" route="right" depart="1030" />
    <vehicle id="right_273" type="typeWE" route="right" depart="1035" />
    <vehicle id="left_274" type="typeWE" route="left" depart="1042" />
    <vehicle id="right_275" type="typeWE" route="right" depart="1045" />
    <vehicle id="right_276" type="typeWE" route="right" depart="1051" />
    <vehicle id="right_277" type="typeWE" route="right" depart="1065" />
    <vehicle id="right_278" type="typeWE" route="right" depart="1074" />
    <vehicle id="left_279" type="typeWE" route="left" depart="1080" />
    <vehicle id="left_280" type="typeWE" route="left" depart="1087" />
    <vehicle id="left_281" type="typeWE" route="left" depart="1089" />
    <vehicle id="left_282" type="typeWE" route="left" depart="1091" />
    <vehicle id="right_283" type="typeWE" route="right" depart="1093" />
    <vehicle id="left_284" type="typeWE" route="left" depart="1097" />
    <vehicle id="right_285" type="typeWE" route="right" depart="1098" />
    <vehicle id="right_286" type="typeWE" route="right" depart="1112" />
    <vehicle id="left_287" type="typeWE" route="left" depart="1112" />
    <vehicle id="down_288" type="typeNS" route="down" depart="1114" color="1,0,0"/>
    <vehicle id="right_289" type="typeWE" route="right" depart="1127" />
    <vehicle id="left_290" type="typeWE" route="left" depart="1142" />
    <vehicle id="up_291" type="typeNS" route="up" depart="1153" color="1,0,0"/>
    <vehicle id="down_292" type="typeNS" route="down" depart="1154" color="1,0,0"/>
    <vehicle id="left_293" type="typeWE" route="left" depart="1157" />
    <vehicle id="up_294" type="typeNS" route="up" depart="1159" color="1,0,0"/>
    <vehicle id="right_295" type="typeWE" route="right" depart="1160" />
    <vehicle id="left_296" type="typeWE" route="left" depart="1161" />
    <vehicle id="left_297" type="typeWE" route="left" depart="1167" />
    <vehicle id="left_298" type="typeWE" route="left" depart="1169" />
    <vehicle id="right_299" type="typeWE" route="right" depart="1175" />
    <vehicle id="right_300" type="typeWE" route="right" depart="1177" />
    <vehicle id="right_301" type="typeWE" route="right" depart="1180" />
    <vehicle id="up_302" type="typeNS" route="up" depart="1183" color="1,0,0"/>
    <vehicle id="right_303" type="typeWE" route="right" depart="1184" />
    <vehicle id="left_304" type="typeWE" route="left" depart="1192" />
    <vehicle id="down_305" type="typeNS" route="down" depart="1192" color="1,0,0"/>
    <vehicle id="up_306" type="typeNS" route="up" depart="1192" color="1,0,0"/>
    <vehicle id="right_307" type="typeWE" route="right" depart="1193" />
    <vehicle id="right_308" type="typeWE" route="right" depart="1195" />
    <vehicle id="right_309" type="typeWE" route="right" depart="1200" />
    <vehicle id="left_310" type="typeWE" route="left" depart="1200" />
    <vehicle id="right_311" type="typeWE" route="right" depart="1201" />
    <vehicle id="left_312" type="typeWE" route="left" depart="1213" />
    <vehicle id="left_313" type="typeWE" route="left" depart="1214" />
    <vehicle id="down_314" type="typeNS" route="down" depart="1218" color="1,0,0"/>
    <vehicle id="right_315" type="typeWE" route="right" depart="1219" />
    <vehicle id="left_316" type="typeWE" route="left" depart="1223" />
    <vehicle id="down_317" type="typeNS" route="down" depart="1223" color="1,0,0"/>
    <vehicle id="left_318" type="typeWE" route="left" depart="1225" />
    <vehicle id="right_319" type="typeWE" route="right" depart="1228" />
    <vehicle id="down_320" type="typeNS" route="down" depart="1239" color="1,0,0"/>
    <vehicle id="up_321" type="typeNS" route="up" depart="1239" color="1,0,0"/>
    <vehicle id="right_322" type="typeWE" route="right" depart="1245" />
    <vehicle id="up_323" type="typeNS" route="up" depart="1252" color="1,0,0"/>
    <vehicle id="left_324" type="typeWE" route="left" depart="1253" />
    <vehicle id="left_325" type="typeWE" route="left" depart="1260" />
    <vehicle id="left_326" type="typeWE" route="left" depart="1262" />
    <vehicle id="up_327" type="typeNS" route="up" depart="1264" color="1,0,0"/>
    <vehicle id="left_328" type="typeWE" route="left" depart="1267" />
    <vehicle id="right_329" type="typeWE" route="right" depart="1270" />
    <vehicle id="right_330" type="typeWE" route="right" depart="1278" />
    <vehicle id="left_331" type="typeWE" route="left" depart="1294" />
    <vehicle id="right_332" type="typeWE" route="right" depart="1296" />
    <vehicle id="right_333" type="typeWE" route="right" depart="1299" />
    <vehicle id="left_334" type="typeWE" route="left" depart="1299" />
    <vehicle id="down_335" type="typeNS" route="down" depart="1301" color="1,0,0"/>
    <vehicle id="right_336" type="typeWE" route="right" depart="1302" />
    <vehicle id="left_337" type="typeWE" route="left" depart="1318" />
    <vehicle id="right_338" type="typeWE" route="right" depart="1319" />
    <vehicle id="left_339" type="typeWE" route="left" depart="1319" />
    <vehicle id="right_340" type="typeWE" route="right" depart="1325" />
    <vehicle id="right_341" type="typeWE" route="right" depart="1332" />
    <vehicle id="left_342" type="typeWE" route="left" depart="1332" />
    <vehicle id="left_343" type="typeWE" route="left" depart="1334" />
    <vehicle id="left_344" type="typeWE" route="left" depart="1338" />
    <vehicle id="right_345" type="typeWE" route="right" depart="1342" />
    <vehicle id="up_346" type="typeNS" route="up" depart="1342" color="1,0,0"/>
    <vehicle id="right_347" type="typeWE" route="right" depart="1345" />
    <vehicle id="left_348" type="typeWE" route="left" depart="1346" />
    <vehicle id="right_349" type="typeWE" route="right" depart="1348" />
    <vehicle id="right_350" type="typeWE" route="right" depart="1349" />
    <vehicle id="right_351" type="typeWE" route="right" depart="1356" />
    <vehicle id="right_352" type="typeWE" route="right" depart="1358" />
    <vehicle id="down_353" type="typeNS" route="down" depart="1360" color="1,0,0"/>
    <vehicle id="down_354" type="typeNS" route="down" depart="1379" color="1,0,0"/>
    <vehicle id="right_355" type="typeWE" route="right" depart="1381" />
    <vehicle id="up_356" type="typeNS" route="up" depart="1386" color="1,0,0"/>
    <vehicle id="right_357" type="typeWE" route="right" depart="1389" />
    <vehicle id="down_358" type="typeNS" route="down" depart="1391" color="1,0,0"/>
    <vehicle id="right_359" type="typeWE" route="right" depart="1398" />
    <vehicle id="left_360" type="typeWE" route="left" depart="1401" />
    <vehicle id="left_361" type="typeWE" route="left" depart="1402" />
    <vehicle id="right_362" type="typeWE" route="right" depart="1408" />
    <vehicle id="left_363" type="typeWE" route="left" depart="1409" />
    <vehicle id="right_364" type="typeWE" route="right" depart="1419" />
    <vehicle id="up_365" type="typeNS" route="up" depart="1427" color="1,0,0"/>
    <vehicle id="left_366" type="typeWE" route="left" depart="1431" />
    <vehicle id="right_367" type="typeWE" route="right" depart="1436" />
    <vehicle id="up_368" type="typeNS" route="up" depart="1439" color="1,0,0"/>
    <vehicle id="right_369" type="typeWE" route="right" depart="1444" />
    <vehicle id="left_370" type="typeWE" route="left" depart="1446" />
    <vehicle id="up_371" type="typeNS" route="up" depart="1446" color="1,0,0"/>
    <vehicle id="right_372" type="typeWE" route="right" depart="1447" />
    <vehicle id="left_373" type="typeWE" route="left" depart="1452" />
    <vehicle id="right_374" type="typeWE" route="right" depart="1454" />
    <vehicle id="down_375" type="typeNS" route="down" depart="1458" color="1,0,0"/>
    <vehicle id="left_376" type="typeWE" route="left" depart="1460" />
    <vehicle id="down_377" type="typeNS" route="down" depart="1475" color="1,0,0"/>
    <vehicle id="left_378" type="typeWE" route="left" depart="1480" />
    <vehicle id="left_379" type="typeWE" route="left" depart="1483" />
    <vehicle id="up_380" type="typeNS" route="up" depart="1492" color="1,0,0"/>
    <vehicle id="up_381" type="typeNS" route="up" depart="1494" color="1,0,0"/>
    <vehicle id="right_382" type="typeWE" route="right" depart="1497" />
    <vehicle id="up_383" type="typeNS" route="up" depart="1497" color="1,0,0"/>
</routes>
